SOL 153
CEND
BEGIN BULK
GRID           1             0.0     0.0     0.0
GRID           2            0.05     0.0     0.0
GRID           3             0.1     0.0     0.0
MAT4           1   200.0           500.0  7800.0
SPC            1       1       3   350.0
TEMPD          1  293.15
ENDDATA
