$ NASTRAN Thermal Test Case — SOL 153 Steady-State Heat Transfer
$ Minimal model for Verixos import testing
SOL 153
CEND
BEGIN BULK
$ ──────────────────────────────────────────────────────────────
$ Grid points (nodes)
$ ──────────────────────────────────────────────────────────────
GRID,1,,0.0,0.0,0.0
GRID,2,,0.1,0.0,0.0
GRID,3,,0.2,0.0,0.0
GRID,4,,0.3,0.0,0.0
GRID,5,,0.4,0.0,0.0
$ ──────────────────────────────────────────────────────────────
$ CHBDYE surface heat transfer elements
$ ──────────────────────────────────────────────────────────────
CHBDYE,1,1,1,,,,,
CHBDYE,2,2,1,,,,,
CHBDYE,3,3,1,,,,,
$ ──────────────────────────────────────────────────────────────
$ Material (MAT4 = isotropic thermal)
$ ──────────────────────────────────────────────────────────────
MAT4,1,200.0,,500.0,7800.0
MAT4,2,50.0,,900.0,2700.0
$ ──────────────────────────────────────────────────────────────
$ Radiation property
$ ──────────────────────────────────────────────────────────────
PRAD,1,1,0.3,0.85
$ ──────────────────────────────────────────────────────────────
$ Convection property
$ ──────────────────────────────────────────────────────────────
PCONV,1,1,0,25.0
$ ──────────────────────────────────────────────────────────────
$ SPC boundary conditions (fixed temperature)
$ ──────────────────────────────────────────────────────────────
SPC,1,1,3,300.0
SPC,1,5,3,400.0
$ ──────────────────────────────────────────────────────────────
$ Initial temperatures
$ ──────────────────────────────────────────────────────────────
TEMPD,1,293.15
TEMP,1,2,350.0
TEMP,1,3,320.0
$ ──────────────────────────────────────────────────────────────
$ Unsupported card (should generate warning)
$ ──────────────────────────────────────────────────────────────
CQUAD4,1,1,1,2,3,4
ENDDATA
